iidm/iidm-xml-converter/src/test/resources/V1_7/scadaNetwork.xml
<?xml version="1.0" encoding="UTF-8"?>
<iidm:network xmlns:iidm="http://www.powsybl.org/schema/iidm/equipment/1_7" id="scada" caseDate="2017-06-25T17:43:00.000+01:00" forecastDistance="0" sourceFormat="test" minimumValidationLevel="EQUIPMENT">
    <iidm:substation id="sub">
        <iidm:voltageLevel id="vl" nominalV="440.0" topologyKind="BUS_BREAKER">
            <iidm:busBreakerTopology>
                <iidm:bus id="bus"/>
            </iidm:busBreakerTopology>
            <iidm:generator id="generator" energySource="OTHER" minP="0.0" maxP="100.0" voltageRegulatorOn="true" bus="bus" connectableBus="bus">
                <iidm:reactiveCapabilityCurve>
                    <iidm:point p="0.0" minQ="0.0" maxQ="0.0"/>
                    <iidm:point p="10.0" minQ="5.0" maxQ="15.0"/>
                </iidm:reactiveCapabilityCurve>
            </iidm:generator>
            <iidm:battery id="battery" minP="0.0" maxP="100.0" bus="bus" connectableBus="bus">
                <iidm:minMaxReactiveLimits minQ="-1.7976931348623157E308" maxQ="1.7976931348623157E308"/>
            </iidm:battery>
            <iidm:boundaryLine id="dl" r="1.0" x="1.0" g="0.0" b="0.0" generationMinP="100.0" generationMaxP="200.0" generationVoltageRegulationOn="false" bus="bus" connectableBus="bus">
                <iidm:minMaxReactiveLimits minQ="100.0" maxQ="200.0"/>
            </iidm:boundaryLine>
            <iidm:lccConverterStation id="lcs" lossFactor="80.0" powerFactor="0.2" bus="bus" connectableBus="bus"/>
        </iidm:voltageLevel>
        <iidm:voltageLevel id="vl2" nominalV="220.0" topologyKind="BUS_BREAKER">
            <iidm:busBreakerTopology>
                <iidm:bus id="bus2"/>
            </iidm:busBreakerTopology>
            <iidm:load id="load" loadType="UNDEFINED" bus="bus2" connectableBus="bus2"/>
            <iidm:shunt id="shunt" voltageRegulatorOn="true" bus="bus2" connectableBus="bus2">
                <iidm:shuntLinearModel bPerSection="10.0" maximumSectionCount="1"/>
            </iidm:shunt>
            <iidm:staticVarCompensator id="svc" bMin="1.1" bMax="3.2" bus="bus2" connectableBus="bus2"/>
            <iidm:vscConverterStation id="vcs" voltageRegulatorOn="true" lossFactor="80.0" bus="bus2" connectableBus="bus2">
                <iidm:minMaxReactiveLimits minQ="-1.7976931348623157E308" maxQ="1.7976931348623157E308"/>
            </iidm:vscConverterStation>
        </iidm:voltageLevel>
        <iidm:voltageLevel id="vl3" nominalV="420.0" topologyKind="NODE_BREAKER">
            <iidm:nodeBreakerTopology>
                <iidm:switch id="switch" kind="BREAKER" retained="false" open="false" node1="0" node2="1"/>
            </iidm:nodeBreakerTopology>
        </iidm:voltageLevel>
        <iidm:twoWindingsTransformer id="tw2t" r="1.0" x="1.0" g="0.0" b="0.0" ratedU1="440.0" ratedU2="220.0" bus1="bus" connectableBus1="bus" voltageLevelId1="vl" bus2="bus2" connectableBus2="bus2" voltageLevelId2="vl2">
            <iidm:ratioTapChanger lowTapPosition="0" loadTapChangingCapabilities="false" regulating="true">
                <iidm:step r="1.0" x="1.0" g="0.0" b="0.0" rho="1.0"/>
            </iidm:ratioTapChanger>
            <iidm:phaseTapChanger lowTapPosition="0">
                <iidm:step r="1.0" x="1.0" g="0.0" b="0.0" rho="1.0" alpha="1.0"/>
            </iidm:phaseTapChanger>
        </iidm:twoWindingsTransformer>
        <iidm:threeWindingsTransformer id="t3wt" r1="1.0" x1="1.0" g1="0.0" b1="0.0" ratedU1="400.0" r2="1.0" x2="1.0" g2="0.0" b2="0.0" ratedU2="220.0" r3="1.0" x3="1.0" g3="0.0" b3="0.0" ratedU3="190.0" ratedU0="400.0" bus1="bus" connectableBus1="bus" voltageLevelId1="vl" bus2="bus2" connectableBus2="bus2" voltageLevelId2="vl2" node3="0" voltageLevelId3="vl3">
            <iidm:ratioTapChanger1 lowTapPosition="0" loadTapChangingCapabilities="false" regulating="true">
                <iidm:step r="1.0" x="1.0" g="0.0" b="0.0" rho="1.0"/>
            </iidm:ratioTapChanger1>
            <iidm:phaseTapChanger2 lowTapPosition="0">
                <iidm:step r="1.0" x="1.0" g="0.0" b="0.0" rho="1.0" alpha="1.0"/>
            </iidm:phaseTapChanger2>
        </iidm:threeWindingsTransformer>
    </iidm:substation>
    <iidm:line id="line" r="1.0" x="1.0" g1="0.0" b1="0.0" g2="0.0" b2="0.0" bus1="bus" connectableBus1="bus" voltageLevelId1="vl" bus2="bus2" connectableBus2="bus2" voltageLevelId2="vl2"/>
    <iidm:hvdcLine id="hvdcline" r="1.0" nominalV="400.0" convertersMode="SIDE_1_INVERTER_SIDE_2_RECTIFIER" maxP="20.0" converterStation1="lcs" converterStation2="vcs"/>
</iidm:network>
